hoge makes hoge hoge.

new line.

hoge hoge.