hoge makes hoge hoge.

new line.

2nd new line.